33

O       4.571800000000001     12.014100000000001      4.747000000000000
O       5.644400000000000     10.082100000000001      4.726400000000000
C       5.746300000000000      3.983100000000001      3.970699999999999
C       4.428500000000001      4.234400000000001      4.706399999999999
C       4.133000000000000      5.712100000000001      4.717099999999999
C       3.590700000000000      8.423000000000000      4.737100000000000
C       3.295300000000000      9.900700000000001      4.747800000000000
C       6.109500000000001      2.500000000000001      4.067200000000000
C       5.592300000000000      4.375800000000000      2.500000000000000
C       3.400300000000000      6.278000000000000      3.690599999999999
C       4.589100000000000      6.500600000000000      5.756900000000000
C       3.129400000000000      7.633500000000001      3.700400000000000
C       4.318100000000000      7.856100000000001      5.766800000000000
C       2.500000000000000     10.252700000000001      6.006599999999999
C       4.590000000000000     10.671900000000001      4.739599999999999
H       1.923680851500000      9.477562159000000      6.265493696999999
H       1.923680851500000     11.049700442800001      5.825881115599999
H       2.599733229500000      8.042930458600001      2.957557674799999
H       2.759956024500000     10.139463175400001      3.937620074000000
H       3.066204549000001      5.706769950800000      2.940876232199999
H       3.131421511500000     10.461531054400000      6.753389739999999
H       3.688335628500000      3.749195227400000      4.240854844199999
H       4.502208882500001      3.901767446600001      5.646570494200000
H       4.648269050000001      8.426538121600000      6.518854271400000
H       5.089807257500000      3.660760816100000      2.013980083000000
H       5.089807257500000      5.237935492600000      2.435107822600000
H       5.115093359000000      6.090421156100001      6.501943150600000
H       5.531646797500001     12.294632856200002      4.748545745400000
H       5.731068646000001      2.011378492100000      3.281046659599999
H       5.731068646000001      2.117360450300001      4.910043546400000
H       6.470874371500000      4.531563273800000      4.388044543999999
H       6.496358491500001      4.486061570300000      2.087060283600000
H       7.104395819500001      2.399267814600000      4.073751193800000
